-------------------------------------------------------
          Amber 20 PMEMD                              2020
          -------------------------------------------------------

File Assignments:

 Here is the input file:

1-step Heating (c) 200ps = 100000 * 0.002 = 200000 fs = steps *dt
 &cntrl
     imin=0, irest=0, ntx=1,
     ntc=2, ntf=2, dt=0.002,
     cut = 10.0,
     nstlim=100000,
     ntb=1, ntp=0,
     temp0=300.0,
     ntt=3, gamma_ln=3.0, ig=-1
     ntpr=10000,
     ntwv=0, ntwe=1000, ntwx=1000,ntwr=1000,
&end

Note: ig = -1. Setting random seed to   440177 based on wallclock time in
      microseconds and disabling the synchronization of random numbers
      between tasks to improve performance.

--------------------------------------------------------------------------------
   1.  RESOURCE   USE:
--------------------------------------------------------------------------------

 getting box info from netcdf restart file
 NATOM  =   12603 NTYPES =      16 NBONH =   12520 MBONA  =      84
 NTHETH =     153 MTHETA =     115 NPHIH =     321 MPHIA  =     345
 NHPARM =       0 NPARM  =       0 NNB   =   17410 NRES   =    4163
 NBONA  =      84 NTHETA =     115 NPHIA =     345 NUMBND =      45
 NUMANG =      92 NPTRA  =     112 NATYP =      28 NPHB   =       1
 IFBOX  =       1 NMXRS  =      24 IFCAP =       0 NEXTRA =       0
 NCOPY  =       0

     BOX TYPE: RECTILINEAR

--------------------------------------------------------------------------------
   2.  CONTROL  DATA  FOR  THE  RUN
--------------------------------------------------------------------------------

NGLY

General flags:
     imin    =       0, nmropt  =       0

Nature and format of input:
     ntx     =       1, irest   =       0, ntrx    =       1

Nature and format of output:
     ntxo    =       2, ntpr    =   10000, ntrx    =       1, ntwr    =    1000
     iwrap   =       0, ntwx    =    1000, ntwv    =       0, ntwe    =    1000
     ioutfm  =       1, ntwprt  =       0, idecomp =       0, rbornstat=      0

Potential function:
     ntf     =       2, ntb     =       1, igb     =       0, nsnb    =      25
     ipol    =       0, gbsa    =       0, iesp    =       0
     dielc   =   1.00000, cut     =  10.00000, intdiel =   1.00000

Frozen or restrained atoms:
     ibelly  =       0, ntr     =       0

Molecular dynamics:
     nstlim  =    100000, nscm    =      1000, nrespa  =         1
     t       =   0.00000, dt      =   0.00200, vlimit  =  20.00000

Langevin dynamics temperature regulation:
     ig      =  440177
     temp0   = 300.00000, tempi   =   0.00000, gamma_ln=   3.00000

SHAKE:
     ntc     =       2, jfastw  =       0
     tol     =   0.00001

Ewald parameters:
     verbose =       0, ew_type =       0, nbflag  =       1, use_pme =       1
     vdwmeth =       1, eedmeth =       1, netfrc  =       1
     Box X =   67.185   Box Y =   47.921   Box Z =   53.728
     Alpha =   90.000   Beta  =   90.000   Gamma =   90.000
     NFFT1 =   72       NFFT2 =   48       NFFT3 =   54
     Cutoff=   10.000   Tol   =0.100E-04
     Ewald Coefficient =  0.27511
     Interpolation order =    4

--------------------------------------------------------------------------------
   3.  ATOMIC COORDINATES AND VELOCITIES
--------------------------------------------------------------------------------

NGLY
 begin time read from input coords =     0.000 ps

 Number of triangulated 3-point waters found:     4151

     Sum of charges from parm topology file =  -0.00000001
     Forcing neutrality...

--------------------------------------------------------------------------------
   4.  RESULTS
 NSTEP =        0   TIME(PS) =       0.000  TEMP(K) =     0.00  PRESS =     0.0
 Etot   =    -57292.6723  EKtot   =         0.0000  EPtot      =    -57292.6723
 BOND   =         3.4510  ANGLE   =        17.4384  DIHED      =        96.4677
 1-4 NB =        28.4805  1-4 EEL =       543.6284  VDWAALS    =     12975.9905
 EELEC  =    -70958.1288  EHBOND  =         0.0000  RESTRAINT  =         0.0000
 Ewald error estimate:   0.2185E-03
 ------------------------------------------------------------------------------

      A V E R A G E S   O V E R      10 S T E P S

 NSTEP =   100000   TIME(PS) =     200.000  TEMP(K) =   299.52  PRESS =     0.0
 Etot   =    -31472.1927  EKtot   =      7526.0618  EPtot      =    -38998.2545
 BOND   =        29.0954  ANGLE   =        67.3056  DIHED      =       112.2866
 1-4 NB =        30.9914  1-4 EEL =       540.7085  VDWAALS    =      5671.2866
 EELEC  =    -45449.9285  EHBOND  =         0.0000  RESTRAINT  =         0.0000
 Ewald error estimate:   0.1034E-03
 ------------------------------------------------------------------------------

      R M S  F L U C T U A T I O N S

 NSTEP =   100000   TIME(PS) =     200.000  TEMP(K) =     1.36  PRESS =     0.0
 Etot   =       120.7464  EKtot   =        34.1926  EPtot      =       104.2817
 BOND   =         6.2708  ANGLE   =         5.3545  DIHED      =         3.9082
 1-4 NB =         1.9255  1-4 EEL =         7.0041  VDWAALS    =        77.0686
 EELEC  =       139.6728  EHBOND  =         0.0000  RESTRAINT  =         0.0000
 Ewald error estimate:   0.5553E-04
 ------------------------------------------------------------------------------
